LAMMPS (3 Mar 2020)
# DFF generated Lammps input file

units          real
atom_style     full
boundary       p p p

pair_style     lj/cut/coul/long     10.0
pair_modify    mix arithmetic
pair_modify    tail yes
kspace_style   pppm 1.0e-4
dielectric     1.0
special_bonds  amber
bond_style     harmonic
angle_style    harmonic
dihedral_style none
improper_style none

read_data      data.1000SPCE.lmp
  orthogonal box = (0 0 0) to (31.043 31.043 31.043)
  reading atoms ...
  3000 atoms
  scanning bonds ...
  scanning angles ...
  reading bonds ...
  2000 bonds
  reading angles ...
  1000 angles

variable T equal 300
variable P equal 1.0

velocity       all create 300 12345 mom yes rot yes dist gaussian

timestep       1.0

# Constraint ##################################
fix com        all momentum 100 linear 1 1 1
fix rigid      all shake 1e-4 20 0 b 1 a 1
  find clusters CPU = 0.000442737 secs

# Viscosity  ##################################
variable       A equal 0.02e-5 # angstrom/fs^2

fix            cos all accelerate/cos 2e-07
compute        cos all viscosity/cos

variable       density equal density
variable       lz equal lz
variable       vMax equal c_cos[7] # velocity of atoms at z=0
variable       invVis equal v_vMax/2e-07/v_density*39.4784/v_lz/v_lz*100

fix            npt all npt temp 300 300 100 iso 1 1 1000
fix_modify     npt temp cos

thermo_style   custom step cpu temp press pe density v_vMax v_invVis
thermo_modify  temp cos
thermo         100
################################################

dump           1 all custom 10000 dump.lammpstrj id mol type element q xu yu zu
dump_modify    1 sort id element O H

run            2000
PPPM initialization ...
  G vector (1/distance) = 0.263539
  grid = 16 16 16
  stencil order = 5
  estimated absolute RMS force accuracy = 0.0325342
  estimated relative force accuracy = 9.79757e-05
  3d grid and FFT values/proc = 3375 512
  update every 1 steps, delay 10 steps, check yes
Step CPU Temp Press PotEng Density v_vMax v_invVis
0            0    450.04468    9838.6886    -7651.736   0.99999331 0.0001293705    2649.9663
Averages over the last 11 of 21 rows, steps 1000 to 2000:
Temp Press PotEng Density v_vMax v_invVis
301.053 -10.2694 -11034.5 0.994363 0.000277232 5689.69
Loop time of 6.69387 on 8 procs for 2000 steps with 3000 atoms
